Taxonomy_Feeders/R4-25.00-1.glm
// $Id: R4-25.00-1.glm 
// 24.9 kV feeder 
//********************************************* 
clock{ 
     timezone EST+8EDT; 
     timestamp '2000-01-01 0:00:00'; 
     stoptime '2000-01-01 1:00:00'; 

} 

#set profiler=1 
//********************************************* 
// modules 
module tape; 
module powerflow{ 
     solver_method NR; 
      default_maximum_voltage_error 1e-6;
}; 

//********************************************* 
object regulator:1211 { 
     name R4-25-00-1_reg_1; 
     from R4-25-00-1_node_231; 
     to R4-25-00-1_meter_2; 
     phases ABCN; 
     configuration feeder_reg_cfg; 
} 

object regulator_configuration:1212 { 
     name feeder_reg_cfg; 
     Control OUTPUT_VOLTAGE; 
     band_center 14975.0; 
     band_width 240; 
     connect_type WYE_WYE; 
     time_delay 30; 
     raise_taps 16; 
     lower_taps 16; 
     regulation 0.10; 
     tap_pos_A 0; 
     tap_pos_B 0; 
     tap_pos_C 0; 
} 

object fuse:1178 { 
     name R4-25-00-1_fuse_1; 
     phases CN; 
     from R4-25-00-1_node_45; 
     to R4-25-00-1_node_94; 
     current_limit 50000;// 30; 
     status CLOSED; 
} 

object fuse:1179 { 
     name R4-25-00-1_fuse_2; 
     phases CN; 
     from R4-25-00-1_node_161; 
     to R4-25-00-1_node_96; 
     current_limit 50000;// 30; 
     status CLOSED; 
} 

object fuse:1180 { 
     name R4-25-00-1_fuse_3; 
     phases CN; 
     from R4-25-00-1_node_162; 
     to R4-25-00-1_node_77; 
     current_limit 50000;// 30; 
     status CLOSED; 
} 

object fuse:1181 { 
     name R4-25-00-1_fuse_4; 
     phases CN; 
     from R4-25-00-1_node_134; 
     to R4-25-00-1_node_78; 
     current_limit 50000;// 40; 
     status CLOSED; 
} 

object fuse:1182 { 
     name R4-25-00-1_fuse_5; 
     phases CN; 
     from R4-25-00-1_node_134; 
     to R4-25-00-1_node_79; 
     current_limit 50000;// 40; 
     status CLOSED; 
} 

object fuse:1183 { 
     name R4-25-00-1_fuse_6; 
     phases CN; 
     from R4-25-00-1_node_48; 
     to R4-25-00-1_node_80; 
     current_limit 50000;// 40; 
     status CLOSED; 
} 

object fuse:1184 { 
     name R4-25-00-1_fuse_7; 
     phases CN; 
     from R4-25-00-1_node_53; 
     to R4-25-00-1_node_81; 
     current_limit 50000;// 40; 
     status CLOSED; 
} 

object fuse:1185 { 
     name R4-25-00-1_fuse_8; 
     phases CN; 
     from R4-25-00-1_node_176; 
     to R4-25-00-1_node_82; 
     current_limit 50000;// 40; 
     status CLOSED; 
} 

object fuse:1186 { 
     name R4-25-00-1_fuse_9; 
     phases CN; 
     from R4-25-00-1_node_49; 
     to R4-25-00-1_node_83; 
     current_limit 50000;// 40; 
     status CLOSED; 
} 

object fuse:1187 { 
     name R4-25-00-1_fuse_10; 
     phases CN; 
     from R4-25-00-1_node_51; 
     to R4-25-00-1_node_84; 
     current_limit 50000;// 40; 
     status CLOSED; 
} 

object fuse:1188 { 
     name R4-25-00-1_fuse_11; 
     phases BN; 
     from R4-25-00-1_node_23; 
     to R4-25-00-1_node_85; 
     current_limit 50000;// 60; 
     status CLOSED; 
} 

object fuse:1189 { 
     name R4-25-00-1_fuse_12; 
     phases CN; 
     from R4-25-00-1_node_32; 
     to R4-25-00-1_node_86; 
     current_limit 50000;// 60; 
     status CLOSED; 
} 

object fuse:1190 { 
     name R4-25-00-1_fuse_13; 
     phases BN; 
     from R4-25-00-1_node_156; 
     to R4-25-00-1_node_87; 
     current_limit 50000;// 60; 
     status CLOSED; 
} 

object fuse:1191 { 
     name R4-25-00-1_fuse_14; 
     phases AN; 
     from R4-25-00-1_node_13; 
     to R4-25-00-1_node_102; 
     current_limit 50000;// 60; 
     status CLOSED; 
} 

object fuse:1192 { 
     name R4-25-00-1_fuse_15; 
     phases AN; 
     from R4-25-00-1_node_13; 
     to R4-25-00-1_node_88; 
     current_limit 50000;// 60; 
     status CLOSED; 
} 

object fuse:1193 { 
     name R4-25-00-1_fuse_16; 
     phases BN; 
     from R4-25-00-1_node_19; 
     to R4-25-00-1_node_89; 
     current_limit 50000;// 60; 
     status CLOSED; 
} 

object fuse:1194 { 
     name R4-25-00-1_fuse_17; 
     phases CN; 
     from R4-25-00-1_node_151; 
     to R4-25-00-1_node_90; 
     current_limit 50000;// 60; 
     status CLOSED; 
} 

object fuse:1195 { 
     name R4-25-00-1_fuse_18; 
     phases AN; 
     from R4-25-00-1_node_154; 
     to R4-25-00-1_node_91; 
     current_limit 50000;// 60; 
     status CLOSED; 
} 

object fuse:1196 { 
     name R4-25-00-1_fuse_19; 
     phases CN; 
     from R4-25-00-1_node_15; 
     to R4-25-00-1_node_92; 
     current_limit 50000;// 60; 
     status CLOSED; 
} 

object fuse:1197 { 
     name R4-25-00-1_fuse_20; 
     phases CN; 
     from R4-25-00-1_node_65; 
     to R4-25-00-1_node_93; 
     current_limit 50000;// 40; 
     status CLOSED; 
} 

object fuse:1198 { 
     name R4-25-00-1_fuse_21; 
     phases CN; 
     from R4-25-00-1_node_38; 
     to R4-25-00-1_node_97; 
     current_limit 50000;// 40; 
     status CLOSED; 
} 

object fuse:1199 { 
     name R4-25-00-1_fuse_22; 
     phases CN; 
     from R4-25-00-1_node_145; 
     to R4-25-00-1_node_98; 
     current_limit 50000;// 30; 
     status CLOSED; 
} 

object fuse:1200 { 
     name R4-25-00-1_fuse_23; 
     phases CN; 
     from R4-25-00-1_node_50; 
     to R4-25-00-1_node_99; 
     current_limit 50000;// 40; 
     status CLOSED; 
} 

object fuse:1201 { 
     name R4-25-00-1_fuse_24; 
     phases CN; 
     from R4-25-00-1_node_40; 
     to R4-25-00-1_node_100; 
     current_limit 50000;// 30; 
     status CLOSED; 
} 

object fuse:1202 { 
     name R4-25-00-1_fuse_25; 
     phases CN; 
     from R4-25-00-1_node_190; 
     to R4-25-00-1_node_101; 
     current_limit 50000;// 50; 
     status CLOSED; 
} 

object fuse:1203 { 
     name R4-25-00-1_fuse_26; 
     phases CN; 
     from R4-25-00-1_node_1; 
     to R4-25-00-1_node_95; 
     current_limit 50000;// 80; 
     status CLOSED; 
} 

object fuse:1204 { 
     name R4-25-00-1_fuse_27; 
     phases CN; 
     from R4-25-00-1_node_46; 
     to R4-25-00-1_node_103; 
     current_limit 50000;// 30; 
     status CLOSED; 
} 

object fuse:1205 { 
     name R4-25-00-1_fuse_28; 
     phases CN; 
     from R4-25-00-1_node_59; 
     to R4-25-00-1_node_76; 
     current_limit 50000;// 30; 
     status CLOSED; 
} 

object line_configuration:16 { 
     conductor_B overhead_line_conductor:2; 
     conductor_N overhead_line_conductor:2; 
     spacing line_spacing:8; 
} 

object line_configuration:17 { 
     conductor_C overhead_line_conductor:2; 
     conductor_N overhead_line_conductor:2; 
     spacing line_spacing:9; 
} 

object line_configuration:18 { 
     conductor_A overhead_line_conductor:3; 
     conductor_B overhead_line_conductor:3; 
     conductor_C overhead_line_conductor:3; 
     conductor_N overhead_line_conductor:3; 
     spacing line_spacing:10; 
} 

object line_configuration:19 { 
     conductor_B overhead_line_conductor:4; 
     conductor_N overhead_line_conductor:4; 
     spacing line_spacing:8; 
} 

object line_configuration:20 { 
     conductor_A overhead_line_conductor:2; 
     conductor_N overhead_line_conductor:2; 
     spacing line_spacing:11; 
} 

object line_configuration:21 { 
     conductor_C overhead_line_conductor:5; 
     conductor_N overhead_line_conductor:5; 
     spacing line_spacing:9; 
} 

object line_configuration:22 { 
     conductor_C overhead_line_conductor:5; 
     conductor_N overhead_line_conductor:5; 
     spacing line_spacing:9; 
} 

object line_configuration:23 { 
     conductor_A overhead_line_conductor:2; 
     conductor_C overhead_line_conductor:2; 
     conductor_N overhead_line_conductor:2; 
     spacing line_spacing:12; 
} 

object line_configuration:24 { 
     conductor_C underground_line_conductor:6; 
     conductor_N underground_line_conductor:6; 
     spacing line_spacing:13; 
} 

object line_configuration:25 { 
     conductor_C underground_line_conductor:6; 
     conductor_N underground_line_conductor:6; 
     spacing line_spacing:9; 
} 

object line_configuration:26 { 
     conductor_A underground_line_conductor:6; 
     conductor_N underground_line_conductor:6; 
     spacing line_spacing:14; 
} 

object line_configuration:27 { 
     conductor_A overhead_line_conductor:4; 
     conductor_N overhead_line_conductor:4; 
     spacing line_spacing:11; 
} 

object line_configuration:28 { 
     conductor_A overhead_line_conductor:3; 
     conductor_B overhead_line_conductor:3; 
     conductor_C overhead_line_conductor:3; 
     conductor_N overhead_line_conductor:3; 
     spacing line_spacing:15; 
} 

object line_spacing:8 { 
     distance_BN 48.0 in; 
} 

object line_spacing:9 { 
     distance_CN 48.0 in; 
} 

object line_spacing:10 { 
     distance_AB 57.6 in; 
     distance_BC 57.6 in; 
     distance_AC 57.6 in; 
     distance_AN 48.0 in; 
     distance_BN 48.0 in; 
     distance_CN 48.0 in; 
} 

object line_spacing:11 { 
     distance_AN 48.0 in; 
} 

object line_spacing:12 { 
     distance_AC 51.6 in; 
     distance_AN 48.0 in; 
     distance_CN 48.0 in; 
} 

object line_spacing:13 { 
     distance_CN 0.0 in; 
} 

object line_spacing:14 { 
     distance_AN 0.0 in; 
} 

object line_spacing:15 { 
     distance_AB 48.0 in; 
     distance_BC 48.0 in; 
     distance_AC 48.0 in; 
     distance_AN 48.0 in; 
     distance_BN 48.0 in; 
     distance_CN 48.0 in; 
} 

object load:259 { 
     name R4-25-00-1_load_1; 
     parent R4-25-00-1_meter_1; 
     phases ACN; 
     voltage_A 14376.02+0.0j; 
     voltage_C -7188.01+12450j; 
     constant_power_A 5000+1000j; 
     constant_power_C 5000+1000j; 
     nominal_voltage 480; 
     load_class C; 
} 

object meter:680 { 
     name R4-25-00-1_meter_1; 
     phases ACN; 
     voltage_A 14376.02+0.0j; 
     voltage_C -7188.01+12450j; 
     nominal_voltage 480; 
} 

// Meter at feeder 
object meter:1210 { 
     name R4-25-00-1_meter_2; 
     phases ABCN; 
     nominal_voltage 480; 
     voltage_A 14376.02+0.0j; 
     voltage_B -7188.01-12450j; 
     voltage_C -7188.01+12450j; 
} 

object node:29 { 
     name R4-25-00-1_node_1; 
     phases CN; 
     voltage_C -7188.01+12450j; 
     nominal_voltage 14376.02; 
} 

object node:30 { 
     name R4-25-00-1_node_2; 
     phases ABCN; 
     voltage_A 14376.02+0.0j; 
     voltage_B -7188.01-12450j; 
     voltage_C -7188.01+12450j; 
     nominal_voltage 14376.02; 
} 

object node:31 { 
     name R4-25-00-1_node_3; 
     phases ABCN; 
     voltage_A 14376.02+0.0j; 
     voltage_B -7188.01-12450j; 
     voltage_C -7188.01+12450j; 
     nominal_voltage 14376.02; 
} 

object node:32 { 
     name R4-25-00-1_node_4; 
     phases BN; 
     voltage_B -7188.01-12450j; 
     nominal_voltage 14376.02; 
} 

object node:33 { 
     name R4-25-00-1_node_5; 
     phases BN; 
     voltage_B -7188.01-12450j; 
     nominal_voltage 14376.02; 
} 

object node:34 { 
     name R4-25-00-1_node_6; 
     phases BN; 
     voltage_B -7188.01-12450j; 
     nominal_voltage 14376.02; 
} 

object node:35 { 
     name R4-25-00-1_node_7; 
     phases BN; 
     voltage_B -7188.01-12450j; 
     nominal_voltage 14376.02; 
} 

object node:36 { 
     name R4-25-00-1_node_8; 
     phases BN; 
     voltage_B -7188.01-12450j; 
     nominal_voltage 14376.02; 
} 

object node:37 { 
     name R4-25-00-1_node_9; 
     phases BN; 
     voltage_B -7188.01-12450j; 
     nominal_voltage 14376.02; 
} 

object node:38 { 
     name R4-25-00-1_node_10; 
     phases BN; 
     voltage_B -7188.01-12450j; 
     nominal_voltage 14376.02; 
} 

object node:39 { 
     name R4-25-00-1_node_11; 
     phases ABCN; 
     voltage_A 14376.02+0.0j; 
     voltage_B -7188.01-12450j; 
     voltage_C -7188.01+12450j; 
     nominal_voltage 14376.02; 
} 

object node:40 { 
     name R4-25-00-1_node_12; 
     phases ABCN; 
     voltage_A 14376.02+0.0j; 
     voltage_B -7188.01-12450j; 
     voltage_C -7188.01+12450j; 
     nominal_voltage 14376.02; 
} 

object node:41 { 
     name R4-25-00-1_node_13; 
     phases ABCN; 
     voltage_A 14376.02+0.0j; 
     voltage_B -7188.01-12450j; 
     voltage_C -7188.01+12450j; 
     nominal_voltage 14376.02; 
} 

object node:42 { 
     name R4-25-00-1_node_14; 
     phases CN; 
     voltage_C -7188.01+12450j; 
     nominal_voltage 14376.02; 
} 

object node:43 { 
     name R4-25-00-1_node_15; 
     phases ABCN; 
     voltage_A 14376.02+0.0j; 
     voltage_B -7188.01-12450j; 
     voltage_C -7188.01+12450j; 
     nominal_voltage 14376.02; 
} 

object node:44 { 
     name R4-25-00-1_node_16; 
     phases CN; 
     voltage_C -7188.01+12450j; 
     nominal_voltage 14376.02; 
} 

object node:45 { 
     name R4-25-00-1_node_17; 
     phases ABCN; 
     voltage_A 14376.02+0.0j; 
     voltage_B -7188.01-12450j; 
     voltage_C -7188.01+12450j; 
     nominal_voltage 14376.02; 
} 

object node:46 { 
     name R4-25-00-1_node_18; 
     phases ABCN; 
     voltage_A 14376.02+0.0j; 
     voltage_B -7188.01-12450j; 
     voltage_C -7188.01+12450j; 
     nominal_voltage 14376.02; 
} 

object node:47 { 
     name R4-25-00-1_node_19; 
     phases ABCN; 
     voltage_A 14376.02+0.0j; 
     voltage_B -7188.01-12450j; 
     voltage_C -7188.01+12450j; 
     nominal_voltage 14376.02; 
} 

object node:48 { 
     name R4-25-00-1_node_20; 
     phases ABCN; 
     voltage_A 14376.02+0.0j; 
     voltage_B -7188.01-12450j; 
     voltage_C -7188.01+12450j; 
     nominal_voltage 14376.02; 
} 

object node:49 { 
     name R4-25-00-1_node_21; 
     phases BN; 
     voltage_B -7188.01-12450j; 
     nominal_voltage 14376.02; 
} 

object node:50 { 
     name R4-25-00-1_node_22; 
     phases ABCN; 
     voltage_A 14376.02+0.0j; 
     voltage_B -7188.01-12450j; 
     voltage_C -7188.01+12450j; 
     nominal_voltage 14376.02; 
} 

object node:51 { 
     name R4-25-00-1_node_23; 
     phases ABCN; 
     voltage_A 14376.02+0.0j; 
     voltage_B -7188.01-12450j; 
     voltage_C -7188.01+12450j; 
     nominal_voltage 14376.02; 
} 

object node:52 { 
     name R4-25-00-1_node_24; 
     phases ABCN; 
     voltage_A 14376.02+0.0j; 
     voltage_B -7188.01-12450j; 
     voltage_C -7188.01+12450j; 
     nominal_voltage 14376.02; 
} 

object node:53 { 
     name R4-25-00-1_node_25; 
     phases CN; 
     voltage_C -7188.01+12450j; 
     nominal_voltage 14376.02; 
} 

object node:54 { 
     name R4-25-00-1_node_26; 
     phases ABCN; 
     voltage_A 14376.02+0.0j; 
     voltage_B -7188.01-12450j; 
     voltage_C -7188.01+12450j; 
     nominal_voltage 14376.02; 
} 

object node:55 { 
     name R4-25-00-1_node_27; 
     phases CN; 
     voltage_C -7188.01+12450j; 
     nominal_voltage 14376.02; 
} 

object node:56 { 
     name R4-25-00-1_node_28; 
     phases CN; 
     voltage_C -7188.01+12450j; 
     nominal_voltage 14376.02; 
} 

object node:57 { 
     name R4-25-00-1_node_29; 
     phases AN; 
     voltage_A 14376.02+0.0j; 
     nominal_voltage 14376.02; 
} 

object node:58 { 
     name R4-25-00-1_node_30; 
     phases ABCN; 
     voltage_A 14376.02+0.0j; 
     voltage_B -7188.01-12450j; 
     voltage_C -7188.01+12450j; 
     nominal_voltage 14376.02; 
} 

object node:59 { 
     name R4-25-00-1_node_31; 
     phases AN; 
     voltage_A 14376.02+0.0j; 
     nominal_voltage 14376.02; 
} 

object node:60 { 
     name R4-25-00-1_node_32; 
     phases ABCN; 
     voltage_A 14376.02+0.0j; 
     voltage_B -7188.01-12450j; 
     voltage_C -7188.01+12450j; 
     nominal_voltage 14376.02; 
} 

object node:61 { 
     name R4-25-00-1_node_33; 
     phases CN; 
     voltage_C -7188.01+12450j; 
     nominal_voltage 14376.02; 
} 

object node:62 { 
     name R4-25-00-1_node_34; 
     phases CN; 
     voltage_C -7188.01+12450j; 
     nominal_voltage 14376.02; 
} 

object node:63 { 
     name R4-25-00-1_node_35; 
     phases CN; 
     voltage_C -7188.01+12450j; 
     nominal_voltage 14376.02; 
} 

object node:64 { 
     name R4-25-00-1_node_36; 
     phases CN; 
     voltage_C -7188.01+12450j; 
     nominal_voltage 14376.02; 
} 

object node:65 { 
     name R4-25-00-1_node_37; 
     phases CN; 
     voltage_C -7188.01+12450j; 
     nominal_voltage 14376.02; 
} 

object node:66 { 
     name R4-25-00-1_node_38; 
     phases CN; 
     voltage_C -7188.01+12450j; 
     nominal_voltage 14376.02; 
} 

object node:67 { 
     name R4-25-00-1_node_39; 
     phases CN; 
     voltage_C -7188.01+12450j; 
     nominal_voltage 14376.02; 
} 

object node:68 { 
     name R4-25-00-1_node_40; 
     phases CN; 
     voltage_C -7188.01+12450j; 
     nominal_voltage 14376.02; 
} 

object node:69 { 
     name R4-25-00-1_node_41; 
     phases CN; 
     voltage_C -7188.01+12450j; 
     nominal_voltage 14376.02; 
} 

object node:70 { 
     name R4-25-00-1_node_42; 
     phases CN; 
     voltage_C -7188.01+12450j; 
     nominal_voltage 14376.02; 
} 

object node:71 { 
     name R4-25-00-1_node_43; 
     phases CN; 
     voltage_C -7188.01+12450j; 
     nominal_voltage 14376.02; 
} 

object node:72 { 
     name R4-25-00-1_node_44; 
     phases CN; 
     voltage_C -7188.01+12450j; 
     nominal_voltage 14376.02; 
} 

object node:73 { 
     name R4-25-00-1_node_45; 
     phases CN; 
     voltage_C -7188.01+12450j; 
     nominal_voltage 14376.02; 
} 

object node:74 { 
     name R4-25-00-1_node_46; 
     phases CN; 
     voltage_C -7188.01+12450j; 
     nominal_voltage 14376.02; 
} 

object node:75 { 
     name R4-25-00-1_node_47; 
     phases CN; 
     voltage_C -7188.01+12450j; 
     nominal_voltage 14376.02; 
} 

object node:76 { 
     name R4-25-00-1_node_48; 
     phases CN; 
     voltage_C -7188.01+12450j; 
     nominal_voltage 14376.02; 
} 

object node:77 { 
     name R4-25-00-1_node_49; 
     phases CN; 
     voltage_C -7188.01+12450j; 
     nominal_voltage 14376.02; 
} 

object node:78 { 
     name R4-25-00-1_node_50; 
     phases CN; 
     voltage_C -7188.01+12450j; 
     nominal_voltage 14376.02; 
} 

object node:79 { 
     name R4-25-00-1_node_51; 
     phases CN; 
     voltage_C -7188.01+12450j; 
     nominal_voltage 14376.02; 
} 

object node:80 { 
     name R4-25-00-1_node_52; 
     phases CN; 
     voltage_C -7188.01+12450j; 
     nominal_voltage 14376.02; 
} 

object node:81 { 
     name R4-25-00-1_node_53; 
     phases CN; 
     voltage_C -7188.01+12450j; 
     nominal_voltage 14376.02; 
} 

object node:82 { 
     name R4-25-00-1_node_54; 
     phases CN; 
     voltage_C -7188.01+12450j; 
     nominal_voltage 14376.02; 
} 

object node:83 { 
     name R4-25-00-1_node_55; 
     phases CN; 
     voltage_C -7188.01+12450j; 
     nominal_voltage 14376.02; 
} 

object node:84 { 
     name R4-25-00-1_node_56; 
     phases CN; 
     voltage_C -7188.01+12450j; 
     nominal_voltage 14376.02; 
} 

object node:85 { 
     name R4-25-00-1_node_57; 
     phases CN; 
     voltage_C -7188.01+12450j; 
     nominal_voltage 14376.02; 
} 

object node:86 { 
     name R4-25-00-1_node_58; 
     phases CN; 
     voltage_C -7188.01+12450j; 
     nominal_voltage 14376.02; 
} 

object node:87 { 
     name R4-25-00-1_node_59; 
     phases CN; 
     voltage_C -7188.01+12450j; 
     nominal_voltage 14376.02; 
} 

object node:88 { 
     name R4-25-00-1_node_60; 
     phases CN; 
     voltage_C -7188.01+12450j; 
     nominal_voltage 14376.02; 
} 

object node:89 { 
     name R4-25-00-1_node_61; 
     phases CN; 
     voltage_C -7188.01+12450j; 
     nominal_voltage 14376.02; 
} 

object node:90 { 
     name R4-25-00-1_node_62; 
     phases CN; 
     voltage_C -7188.01+12450j; 
     nominal_voltage 14376.02; 
} 

object node:91 { 
     name R4-25-00-1_node_63; 
     phases CN; 
     voltage_C -7188.01+12450j; 
     nominal_voltage 14376.02; 
} 

object node:92 { 
     name R4-25-00-1_node_64; 
     phases CN; 
     voltage_C -7188.01+12450j; 
     nominal_voltage 14376.02; 
} 

object node:93 { 
     name R4-25-00-1_node_65; 
     phases CN; 
     voltage_C -7188.01+12450j; 
     nominal_voltage 14376.02; 
} 

object node:94 { 
     name R4-25-00-1_node_66; 
     phases CN; 
     voltage_C -7188.01+12450j; 
     nominal_voltage 14376.02; 
} 

object node:95 { 
     name R4-25-00-1_node_67; 
     phases CN; 
     voltage_C -7188.01+12450j; 
     nominal_voltage 14376.02; 
} 

object node:96 { 
     name R4-25-00-1_node_68; 
     phases CN; 
     voltage_C -7188.01+12450j; 
     nominal_voltage 14376.02; 
} 

object node:97 { 
     name R4-25-00-1_node_69; 
     phases CN; 
     voltage_C -7188.01+12450j; 
     nominal_voltage 14376.02; 
} 

object node:98 { 
     name R4-25-00-1_node_70; 
     phases CN; 
     voltage_C -7188.01+12450j; 
     nominal_voltage 14376.02; 
} 

object node:99 { 
     name R4-25-00-1_node_71; 
     phases CN; 
     voltage_C -7188.01+12450j; 
     nominal_voltage 14376.02; 
} 

object node:100 { 
     name R4-25-00-1_node_72; 
     phases ABCN; 
     voltage_A 14376.02+0.0j; 
     voltage_B -7188.01-12450j; 
     voltage_C -7188.01+12450j; 
     nominal_voltage 14376.02; 
} 

object node:101 { 
     name R4-25-00-1_node_73; 
     phases ABCN; 
     voltage_A 14376.02+0.0j; 
     voltage_B -7188.01-12450j; 
     voltage_C -7188.01+12450j; 
     nominal_voltage 14376.02; 
} 

object node:102 { 
     name R4-25-00-1_node_74; 
     phases ABCN; 
     voltage_A 14376.02+0.0j; 
     voltage_B -7188.01-12450j; 
     voltage_C -7188.01+12450j; 
     nominal_voltage 14376.02; 
} 

object node:103 { 
     name R4-25-00-1_node_75; 
     phases ABCN; 
     voltage_A 14376.02+0.0j; 
     voltage_B -7188.01-12450j; 
     voltage_C -7188.01+12450j; 
     nominal_voltage 14376.02; 
} 

object node:104 { 
     name R4-25-00-1_node_76; 
     phases CN; 
     voltage_C -7188.01+12450j; 
     nominal_voltage 14376.02; 
} 

object node:105 { 
     name R4-25-00-1_node_77; 
     phases CN; 
     voltage_C -7188.01+12450j; 
     nominal_voltage 14376.02; 
} 

object node:106 { 
     name R4-25-00-1_node_78; 
     phases CN; 
     voltage_C -7188.01+12450j; 
     nominal_voltage 14376.02; 
} 

object node:107 { 
     name R4-25-00-1_node_79; 
     phases CN; 
     voltage_C -7188.01+12450j; 
     nominal_voltage 14376.02; 
} 

object node:108 { 
     name R4-25-00-1_node_80; 
     phases CN; 
     voltage_C -7188.01+12450j; 
     nominal_voltage 14376.02; 
} 

object node:109 { 
     name R4-25-00-1_node_81; 
     phases CN; 
     voltage_C -7188.01+12450j; 
     nominal_voltage 14376.02; 
} 

object node:110 { 
     name R4-25-00-1_node_82; 
     phases CN; 
     voltage_C -7188.01+12450j; 
     nominal_voltage 14376.02; 
} 

object node:111 { 
     name R4-25-00-1_node_83; 
     phases CN; 
     voltage_C -7188.01+12450j; 
     nominal_voltage 14376.02; 
} 

object node:112 { 
     name R4-25-00-1_node_84; 
     phases CN; 
     voltage_C -7188.01+12450j; 
     nominal_voltage 14376.02; 
} 

object node:113 { 
     name R4-25-00-1_node_85; 
     phases BN; 
     voltage_B -7188.01-12450j; 
     nominal_voltage 14376.02; 
} 

object node:114 { 
     name R4-25-00-1_node_86; 
     phases CN; 
     voltage_C -7188.01+12450j; 
     nominal_voltage 14376.02; 
} 

object node:115 { 
     name R4-25-00-1_node_87; 
     phases BN; 
     voltage_B -7188.01-12450j; 
     nominal_voltage 14376.02; 
} 

object node:116 { 
     name R4-25-00-1_node_88; 
     phases AN; 
     voltage_A 14376.02+0.0j; 
     nominal_voltage 14376.02; 
} 

object node:117 { 
     name R4-25-00-1_node_89; 
     phases BN; 
     voltage_B -7188.01-12450j; 
     nominal_voltage 14376.02; 
} 

object node:118 { 
     name R4-25-00-1_node_90; 
     phases CN; 
     voltage_C -7188.01+12450j; 
     nominal_voltage 14376.02; 
} 

object node:119 { 
     name R4-25-00-1_node_91; 
     phases AN; 
     voltage_A 14376.02+0.0j; 
     nominal_voltage 14376.02; 
} 

object node:120 { 
     name R4-25-00-1_node_92; 
     phases CN; 
     voltage_C -7188.01+12450j; 
     nominal_voltage 14376.02; 
} 

object node:121 { 
     name R4-25-00-1_node_93; 
     phases CN; 
     voltage_C -7188.01+12450j; 
     nominal_voltage 14376.02; 
} 

object node:122 { 
     name R4-25-00-1_node_94; 
     phases CN; 
     voltage_C -7188.01+12450j; 
     nominal_voltage 14376.02; 
} 

object node:123 { 
     name R4-25-00-1_node_95; 
     phases CN; 
     voltage_C -7188.01+12450j; 
     nominal_voltage 14376.02; 
} 

object node:124 { 
     name R4-25-00-1_node_96; 
     phases CN; 
     voltage_C -7188.01+12450j; 
     nominal_voltage 14376.02; 
} 

object node:125 { 
     name R4-25-00-1_node_97; 
     phases CN; 
     voltage_C -7188.01+12450j; 
     nominal_voltage 14376.02; 
} 

object node:126 { 
     name R4-25-00-1_node_98; 
     phases CN; 
     voltage_C -7188.01+12450j; 
     nominal_voltage 14376.02; 
} 

object node:127 { 
     name R4-25-00-1_node_99; 
     phases CN; 
     voltage_C -7188.01+12450j; 
     nominal_voltage 14376.02; 
} 

object node:128 { 
     name R4-25-00-1_node_100; 
     phases CN; 
     voltage_C -7188.01+12450j; 
     nominal_voltage 14376.02; 
} 

object node:129 { 
     name R4-25-00-1_node_101; 
     phases CN; 
     voltage_C -7188.01+12450j; 
     nominal_voltage 14376.02; 
} 

object node:130 { 
     name R4-25-00-1_node_102; 
     phases AN; 
     voltage_A 14376.02+0.0j; 
     nominal_voltage 14376.02; 
} 

object node:131 { 
     name R4-25-00-1_node_103; 
     phases CN; 
     voltage_C -7188.01+12450j; 
     nominal_voltage 14376.02; 
} 

object node:132 { 
     name R4-25-00-1_node_104; 
     phases CN; 
     voltage_C -7188.01+12450j; 
     nominal_voltage 14376.02; 
} 

object node:133 { 
     name R4-25-00-1_node_105; 
     phases CN; 
     voltage_C -7188.01+12450j; 
     nominal_voltage 14376.02; 
} 

object node:134 { 
     name R4-25-00-1_node_106; 
     phases CN; 
     voltage_C -7188.01+12450j; 
     nominal_voltage 14376.02; 
} 

object node:135 { 
     name R4-25-00-1_node_107; 
     phases BN; 
     voltage_B -7188.01-12450j; 
     nominal_voltage 14376.02; 
} 

object node:136 { 
     name R4-25-00-1_node_108; 
     phases BN; 
     voltage_B -7188.01-12450j; 
     nominal_voltage 14376.02; 
} 

object node:137 { 
     name R4-25-00-1_node_109; 
     phases CN; 
     voltage_C -7188.01+12450j; 
     nominal_voltage 14376.02; 
} 

object node:138 { 
     name R4-25-00-1_node_110; 
     phases BN; 
     voltage_B -7188.01-12450j; 
     nominal_voltage 14376.02; 
} 

object node:139 { 
     name R4-25-00-1_node_111; 
     phases AN; 
     voltage_A 14376.02+0.0j; 
     nominal_voltage 14376.02; 
} 

object node:140 { 
     name R4-25-00-1_node_112; 
     phases BN; 
     voltage_B -7188.01-12450j; 
     nominal_voltage 14376.02; 
} 

object node:141 { 
     name R4-25-00-1_node_113; 
     phases BN; 
     voltage_B -7188.01-12450j; 
     nominal_voltage 14376.02; 
} 

object node:142 { 
     name R4-25-00-1_node_114; 
     phases BN; 
     voltage_B -7188.01-12450j; 
     nominal_voltage 14376.02; 
} 

object node:143 { 
     name R4-25-00-1_node_115; 
     phases BN; 
     voltage_B -7188.01-12450j; 
     nominal_voltage 14376.02; 
} 

object node:144 { 
     name R4-25-00-1_node_116; 
     phases BN; 
     voltage_B -7188.01-12450j; 
     nominal_voltage 14376.02; 
} 

object node:145 { 
     name R4-25-00-1_node_117; 
     phases BN; 
     voltage_B -7188.01-12450j; 
     nominal_voltage 14376.02; 
} 

object node:146 { 
     name R4-25-00-1_node_118; 
     phases BN; 
     voltage_B -7188.01-12450j; 
     nominal_voltage 14376.02; 
} 

object node:147 { 
     name R4-25-00-1_node_119; 
     phases BN; 
     voltage_B -7188.01-12450j; 
     nominal_voltage 14376.02; 
} 

object node:148 { 
     name R4-25-00-1_node_120; 
     phases BN; 
     voltage_B -7188.01-12450j; 
     nominal_voltage 14376.02; 
} 

object node:149 { 
     name R4-25-00-1_node_121; 
     phases BN; 
     voltage_B -7188.01-12450j; 
     nominal_voltage 14376.02; 
} 

object node:150 { 
     name R4-25-00-1_node_122; 
     phases BN; 
     voltage_B -7188.01-12450j; 
     nominal_voltage 14376.02; 
} 

object node:151 { 
     name R4-25-00-1_node_123; 
     phases BN; 
     voltage_B -7188.01-12450j; 
     nominal_voltage 14376.02; 
} 

object node:152 { 
     name R4-25-00-1_node_124; 
     phases BN; 
     voltage_B -7188.01-12450j; 
     nominal_voltage 14376.02; 
} 

object node:153 { 
     name R4-25-00-1_node_125; 
     phases BN; 
     voltage_B -7188.01-12450j; 
     nominal_voltage 14376.02; 
} 

object node:154 { 
     name R4-25-00-1_node_126; 
     phases AN; 
     voltage_A 14376.02+0.0j; 
     nominal_voltage 14376.02; 
} 

object node:155 { 
     name R4-25-00-1_node_127; 
     phases ABCN; 
     voltage_A 14376.02+0.0j; 
     voltage_B -7188.01-12450j; 
     voltage_C -7188.01+12450j; 
     nominal_voltage 14376.02; 
} 

object node:156 { 
     name R4-25-00-1_node_128; 
     phases BN; 
     voltage_B -7188.01-12450j; 
     nominal_voltage 14376.02; 
} 

object node:157 { 
     name R4-25-00-1_node_129; 
     phases BN; 
     voltage_B -7188.01-12450j; 
     nominal_voltage 14376.02; 
} 

object node:158 { 
     name R4-25-00-1_node_130; 
     phases BN; 
     voltage_B -7188.01-12450j; 
     nominal_voltage 14376.02; 
} 

object node:159 { 
     name R4-25-00-1_node_131; 
     phases BN; 
     voltage_B -7188.01-12450j; 
     nominal_voltage 14376.02; 
} 

object node:160 { 
     name R4-25-00-1_node_132; 
     phases CN; 
     voltage_C -7188.01+12450j; 
     nominal_voltage 14376.02; 
} 

object node:161 { 
     name R4-25-00-1_node_133; 
     phases CN; 
     voltage_C -7188.01+12450j; 
     nominal_voltage 14376.02; 
} 

object node:162 { 
     name R4-25-00-1_node_134; 
     phases CN; 
     voltage_C -7188.01+12450j; 
     nominal_voltage 14376.02; 
} 

object node:163 { 
     name R4-25-00-1_node_135; 
     phases CN; 
     voltage_C -7188.01+12450j; 
     nominal_voltage 14376.02; 
} 

object node:164 { 
     name R4-25-00-1_node_136; 
     phases CN; 
     voltage_C -7188.01+12450j; 
     nominal_voltage 14376.02; 
} 

object node:165 { 
     name R4-25-00-1_node_137; 
     phases CN; 
     voltage_C -7188.01+12450j; 
     nominal_voltage 14376.02; 
} 

object node:166 { 
     name R4-25-00-1_node_138; 
     phases CN; 
     voltage_C -7188.01+12450j; 
     nominal_voltage 14376.02; 
} 

object node:167 { 
     name R4-25-00-1_node_139; 
     phases CN; 
     voltage_C -7188.01+12450j; 
     nominal_voltage 14376.02; 
} 

object node:168 { 
     name R4-25-00-1_node_140; 
     phases CN; 
     voltage_C -7188.01+12450j; 
     nominal_voltage 14376.02; 
} 

object node:169 { 
     name R4-25-00-1_node_141; 
     phases CN; 
     voltage_C -7188.01+12450j; 
     nominal_voltage 14376.02; 
} 

object node:170 { 
     name R4-25-00-1_node_142; 
     phases CN; 
     voltage_C -7188.01+12450j; 
     nominal_voltage 14376.02; 
} 

object node:171 { 
     name R4-25-00-1_node_143; 
     phases CN; 
     voltage_C -7188.01+12450j; 
     nominal_voltage 14376.02; 
} 

object node:172 { 
     name R4-25-00-1_node_144; 
     phases CN; 
     voltage_C -7188.01+12450j; 
     nominal_voltage 14376.02; 
} 

object node:173 { 
     name R4-25-00-1_node_145; 
     phases CN; 
     voltage_C -7188.01+12450j; 
     nominal_voltage 14376.02; 
} 

object node:174 { 
     name R4-25-00-1_node_146; 
     phases CN; 
     voltage_C -7188.01+12450j; 
     nominal_voltage 14376.02; 
} 

object node:175 { 
     name R4-25-00-1_node_147; 
     phases CN; 
     voltage_C -7188.01+12450j; 
     nominal_voltage 14376.02; 
} 

object node:176 { 
     name R4-25-00-1_node_148; 
     phases CN; 
     voltage_C -7188.01+12450j; 
     nominal_voltage 14376.02; 
} 

object node:177 { 
     name R4-25-00-1_node_149; 
     phases CN; 
     voltage_C -7188.01+12450j; 
     nominal_voltage 14376.02; 
} 

object node:178 { 
     name R4-25-00-1_node_150; 
     phases CN; 
     voltage_C -7188.01+12450j; 
     nominal_voltage 14376.02; 
} 

object node:179 { 
     name R4-25-00-1_node_151; 
     phases ACN; 
     voltage_A 14376.02+0.0j; 
     voltage_C -7188.01+12450j; 
     nominal_voltage 14376.02; 
} 

object node:180 { 
     name R4-25-00-1_node_152; 
     phases BN; 
     voltage_B -7188.01-12450j; 
     nominal_voltage 14376.02; 
} 

object node:181 { 
     name R4-25-00-1_node_153; 
     phases AN; 
     voltage_A 14376.02+0.0j; 
     nominal_voltage 14376.02; 
} 

object node:182 { 
     name R4-25-00-1_node_154; 
     phases ABCN; 
     voltage_A 14376.02+0.0j; 
     voltage_B -7188.01-12450j; 
     voltage_C -7188.01+12450j; 
     nominal_voltage 14376.02; 
} 

object node:183 { 
     name R4-25-00-1_node_155; 
     phases CN; 
     voltage_C -7188.01+12450j; 
     nominal_voltage 14376.02; 
} 

object node:184 { 
     name R4-25-00-1_node_156; 
     phases ABCN; 
     voltage_A 14376.02+0.0j; 
     voltage_B -7188.01-12450j; 
     voltage_C -7188.01+12450j; 
     nominal_voltage 14376.02; 
} 

object node:185 { 
     name R4-25-00-1_node_157; 
     phases AN; 
     voltage_A 14376.02+0.0j; 
     nominal_voltage 14376.02; 
} 

object node:186 { 
     name R4-25-00-1_node_158; 
     phases CN; 
     voltage_C -7188.01+12450j; 
     nominal_voltage 14376.02; 
} 

object node:187 { 
     name R4-25-00-1_node_159; 
     phases CN; 
     voltage_C -7188.01+12450j; 
     nominal_voltage 14376.02; 
} 

object node:188 { 
     name R4-25-00-1_node_160; 
     phases CN; 
     voltage_C -7188.01+12450j; 
     nominal_voltage 14376.02; 
} 

object node:189 { 
     name R4-25-00-1_node_161; 
     phases CN; 
     voltage_C -7188.01+12450j; 
     nominal_voltage 14376.02; 
} 

object node:190 { 
     name R4-25-00-1_node_162; 
     phases CN; 
     voltage_C -7188.01+12450j; 
     nominal_voltage 14376.02; 
} 

object node:191 { 
     name R4-25-00-1_node_163; 
     phases CN; 
     voltage_C -7188.01+12450j; 
     nominal_voltage 14376.02; 
} 

object node:192 { 
     name R4-25-00-1_node_164; 
     phases CN; 
     voltage_C -7188.01+12450j; 
     nominal_voltage 14376.02; 
} 

object node:193 { 
     name R4-25-00-1_node_165; 
     phases CN; 
     voltage_C -7188.01+12450j; 
     nominal_voltage 14376.02; 
} 

object node:194 { 
     name R4-25-00-1_node_166; 
     phases CN; 
     voltage_C -7188.01+12450j; 
     nominal_voltage 14376.02; 
} 

object node:195 { 
     name R4-25-00-1_node_167; 
     phases CN; 
     voltage_C -7188.01+12450j; 
     nominal_voltage 14376.02; 
} 

object node:196 { 
     name R4-25-00-1_node_168; 
     phases CN; 
     voltage_C -7188.01+12450j; 
     nominal_voltage 14376.02; 
} 

object node:197 { 
     name R4-25-00-1_node_169; 
     phases CN; 
     voltage_C -7188.01+12450j; 
     nominal_voltage 14376.02; 
} 

object node:198 { 
     name R4-25-00-1_node_170; 
     phases CN; 
     voltage_C -7188.01+12450j; 
     nominal_voltage 14376.02; 
} 

object node:199 { 
     name R4-25-00-1_node_171; 
     phases CN; 
     voltage_C -7188.01+12450j; 
     nominal_voltage 14376.02; 
} 

object node:200 { 
     name R4-25-00-1_node_172; 
     phases CN; 
     voltage_C -7188.01+12450j; 
     nominal_voltage 14376.02; 
} 

object node:201 { 
     name R4-25-00-1_node_173; 
     phases CN; 
     voltage_C -7188.01+12450j; 
     nominal_voltage 14376.02; 
} 

object node:202 { 
     name R4-25-00-1_node_174; 
     phases CN; 
     voltage_C -7188.01+12450j; 
     nominal_voltage 14376.02; 
} 

object node:203 { 
     name R4-25-00-1_node_175; 
     phases CN; 
     voltage_C -7188.01+12450j; 
     nominal_voltage 14376.02; 
} 

object node:204 { 
     name R4-25-00-1_node_176; 
     phases CN; 
     voltage_C -7188.01+12450j; 
     nominal_voltage 14376.02; 
} 

object node:205 { 
     name R4-25-00-1_node_177; 
     phases CN; 
     voltage_C -7188.01+12450j; 
     nominal_voltage 14376.02; 
} 

object node:206 { 
     name R4-25-00-1_node_178; 
     phases BN; 
     voltage_B -7188.01-12450j; 
     nominal_voltage 14376.02; 
} 

object node:207 { 
     name R4-25-00-1_node_179; 
     phases CN; 
     voltage_C -7188.01+12450j; 
     nominal_voltage 14376.02; 
} 

object node:208 { 
     name R4-25-00-1_node_180; 
     phases CN; 
     voltage_C -7188.01+12450j; 
     nominal_voltage 14376.02; 
} 

object node:209 { 
     name R4-25-00-1_node_181; 
     phases CN; 
     voltage_C -7188.01+12450j; 
     nominal_voltage 14376.02; 
} 

object node:210 { 
     name R4-25-00-1_node_182; 
     phases CN; 
     voltage_C -7188.01+12450j; 
     nominal_voltage 14376.02; 
} 

object node:211 { 
     name R4-25-00-1_node_183; 
     phases CN; 
     voltage_C -7188.01+12450j; 
     nominal_voltage 14376.02; 
} 

object node:212 { 
     name R4-25-00-1_node_184; 
     phases CN; 
     voltage_C -7188.01+12450j; 
     nominal_voltage 14376.02; 
} 

object node:213 { 
     name R4-25-00-1_node_185; 
     phases CN; 
     voltage_C -7188.01+12450j; 
     nominal_voltage 14376.02; 
} 

object node:214 { 
     name R4-25-00-1_node_186; 
     phases ABCN; 
     voltage_A 14376.02+0.0j; 
     voltage_B -7188.01-12450j; 
     voltage_C -7188.01+12450j; 
     nominal_voltage 14376.02; 
} 

object node:215 { 
     name R4-25-00-1_node_187; 
     phases ABCN; 
     voltage_A 14376.02+0.0j; 
     voltage_B -7188.01-12450j; 
     voltage_C -7188.01+12450j; 
     nominal_voltage 14376.02; 
} 

object node:216 { 
     name R4-25-00-1_node_188; 
     phases ABCN; 
     voltage_A 14376.02+0.0j; 
     voltage_B -7188.01-12450j; 
     voltage_C -7188.01+12450j; 
     nominal_voltage 14376.02; 
} 

object node:217 { 
     name R4-25-00-1_node_189; 
     phases ABCN; 
     voltage_A 14376.02+0.0j; 
     voltage_B -7188.01-12450j; 
     voltage_C -7188.01+12450j; 
     nominal_voltage 14376.02; 
} 

object node:218 { 
     name R4-25-00-1_node_190; 
     phases CN; 
     voltage_C -7188.01+12450j; 
     nominal_voltage 14376.02; 
} 

object node:219 { 
     name R4-25-00-1_node_191; 
     phases CN; 
     voltage_C -7188.01+12450j; 
     nominal_voltage 14376.02; 
} 

object node:220 { 
     name R4-25-00-1_node_192; 
     phases CN; 
     voltage_C -7188.01+12450j; 
     nominal_voltage 14376.02; 
} 

object node:221 { 
     name R4-25-00-1_node_193; 
     phases CN; 
     voltage_C -7188.01+12450j; 
     nominal_voltage 14376.02; 
} 

object node:222 { 
     name R4-25-00-1_node_194; 
     phases CN; 
     voltage_C -7188.01+12450j; 
     nominal_voltage 14376.02; 
} 

object node:223 { 
     name R4-25-00-1_node_195; 
     phases CN; 
     voltage_C -7188.01+12450j; 
     nominal_voltage 14376.02; 
} 

object node:224 { 
     name R4-25-00-1_node_196; 
     phases CN; 
     voltage_C -7188.01+12450j; 
     nominal_voltage 14376.02; 
} 

object node:225 { 
     name R4-25-00-1_node_197; 
     phases CN; 
     voltage_C -7188.01+12450j; 
     nominal_voltage 14376.02; 
} 

object node:226 { 
     name R4-25-00-1_node_198; 
     phases CN; 
     voltage_C -7188.01+12450j; 
     nominal_voltage 14376.02; 
} 

object node:227 { 
     name R4-25-00-1_node_199; 
     phases CN; 
     voltage_C -7188.01+12450j; 
     nominal_voltage 14376.02; 
} 

object node:228 { 
     name R4-25-00-1_node_200; 
     phases CN; 
     voltage_C -7188.01+12450j; 
     nominal_voltage 14376.02; 
} 

object node:229 { 
     name R4-25-00-1_node_201; 
     phases CN; 
     voltage_C -7188.01+12450j; 
     nominal_voltage 14376.02; 
} 

object node:230 { 
     name R4-25-00-1_node_202; 
     phases CN; 
     voltage_C -7188.01+12450j; 
     nominal_voltage 14376.02; 
} 

object node:231 { 
     name R4-25-00-1_node_203; 
     phases CN; 
     voltage_C -7188.01+12450j; 
     nominal_voltage 14376.02; 
} 

object node:232 { 
     name R4-25-00-1_node_204; 
     phases CN; 
     voltage_C -7188.01+12450j; 
     nominal_voltage 14376.02; 
} 

object node:233 { 
     name R4-25-00-1_node_205; 
     phases CN; 
     voltage_C -7188.01+12450j; 
     nominal_voltage 14376.02; 
} 

object node:234 { 
     name R4-25-00-1_node_206; 
     phases CN; 
     voltage_C -7188.01+12450j; 
     nominal_voltage 14376.02; 
} 

object node:235 { 
     name R4-25-00-1_node_207; 
     phases CN; 
     voltage_C -7188.01+12450j; 
     nominal_voltage 14376.02; 
} 

object node:236 { 
     name R4-25-00-1_node_208; 
     phases CN; 
     voltage_C -7188.01+12450j; 
     nominal_voltage 14376.02; 
} 

object node:237 { 
     name R4-25-00-1_node_209; 
     phases CN; 
     voltage_C -7188.01+12450j; 
     nominal_voltage 14376.02; 
} 

object node:238 { 
     name R4-25-00-1_node_210; 
     phases CN; 
     voltage_C -7188.01+12450j; 
     nominal_voltage 14376.02; 
} 

object node:239 { 
     name R4-25-00-1_node_211; 
     phases CN; 
     voltage_C -7188.01+12450j; 
     nominal_voltage 14376.02; 
} 

object node:240 { 
     name R4-25-00-1_node_212; 
     phases CN; 
     voltage_C -7188.01+12450j; 
     nominal_voltage 14376.02; 
} 

object node:241 { 
     name R4-25-00-1_node_213; 
     phases CN; 
     voltage_C -7188.01+12450j; 
     nominal_voltage 14376.02; 
} 

object node:242 { 
     name R4-25-00-1_node_214; 
     phases CN; 
     voltage_C -7188.01+12450j; 
     nominal_voltage 14376.02; 
} 

object node:243 { 
     name R4-25-00-1_node_215; 
     phases CN; 
     voltage_C -7188.01+12450j; 
     nominal_voltage 14376.02; 
} 

object node:244 { 
     name R4-25-00-1_node_216; 
     phases CN; 
     voltage_C -7188.01+12450j; 
     nominal_voltage 14376.02; 
} 

object node:245 { 
     name R4-25-00-1_node_217; 
     phases CN; 
     voltage_C -7188.01+12450j; 
     nominal_voltage 14376.02; 
} 

object node:246 { 
     name R4-25-00-1_node_218; 
     phases CN; 
     voltage_C -7188.01+12450j; 
     nominal_voltage 14376.02; 
} 

object node:247 { 
     name R4-25-00-1_node_219; 
     phases CN; 
     voltage_C -7188.01+12450j; 
     nominal_voltage 14376.02; 
} 

object node:248 { 
     name R4-25-00-1_node_220; 
     phases AN; 
     voltage_A 14376.02+0.0j; 
     nominal_voltage 14376.02; 
} 

object node:249 { 
     name R4-25-00-1_node_221; 
     phases CN; 
     voltage_C -7188.01+12450j; 
     nominal_voltage 14376.02; 
} 

object node:250 { 
     name R4-25-00-1_node_222; 
     phases CN; 
     voltage_C -7188.01+12450j; 
     nominal_voltage 14376.02; 
} 

object node:251 { 
     name R4-25-00-1_node_223; 
     phases CN; 
     voltage_C -7188.01+12450j; 
     nominal_voltage 14376.02; 
} 

object node:252 { 
     name R4-25-00-1_node_224; 
     phases CN; 
     voltage_C -7188.01+12450j; 
     nominal_voltage 14376.02; 
} 

object node:253 { 
     name R4-25-00-1_node_225; 
     phases ABCN; 
     voltage_A 14376.02+0.0j; 
     voltage_B -7188.01-12450j; 
     voltage_C -7188.01+12450j; 
     nominal_voltage 14376.02; 
} 

object node:254 { 
     name R4-25-00-1_node_226; 
     phases CN; 
     voltage_C -7188.01+12450j; 
     nominal_voltage 14376.02; 
} 

object node:255 { 
     name R4-25-00-1_node_227; 
     phases CN; 
     voltage_C -7188.01+12450j; 
     nominal_voltage 14376.02; 
} 

object node:256 { 
     name R4-25-00-1_node_228; 
     phases CN; 
     voltage_C -7188.01+12450j; 
     nominal_voltage 14376.02; 
} 

object node:257 { 
     name R4-25-00-1_node_229; 
     phases CN; 
     voltage_C -7188.01+12450j; 
     nominal_voltage 14376.02; 
} 

object node:258 { 
     name R4-25-00-1_node_230; 
     parent R4-25-00-1_meter_2; 
     phases ABCN; 
     voltage_A 14376.02+0.0j; 
     voltage_B -7188.01-12450j; 
     voltage_C -7188.01+12450j; 
     nominal_voltage 14376.02; 
} 

object node:1213 { 
     name R4-25-00-1_node_231; 
     phases ABCN; 
     bustype SWING; 
     nominal_voltage 14376.02; 
     voltage_A 14376.02+0.0j; 
     voltage_B -7188.01-12450j; 
     voltage_C -7188.01+12450j; 
} 

object overhead_line:981 { 
     name R4-25-00-1_ol_1; 
     phases BN; 
     from R4-25-00-1_node_5; 
     to R4-25-00-1_node_130; 
     length 108.057; 
     configuration line_configuration:16; 
} 

object overhead_line:982 { 
     name R4-25-00-1_ol_2; 
     phases BN; 
     from R4-25-00-1_node_130; 
     to R4-25-00-1_node_4; 
     length 52.756; 
     configuration line_configuration:16; 
} 

object overhead_line:983 { 
     name R4-25-00-1_ol_3; 
     phases CN; 
     from R4-25-00-1_node_71; 
     to R4-25-00-1_node_166; 
     length 243.622; 
     configuration line_configuration:17; 
} 

object overhead_line:984 { 
     name R4-25-00-1_ol_4; 
     phases CN; 
     from R4-25-00-1_node_166; 
     to R4-25-00-1_node_167; 
     length 285.109; 
     configuration line_configuration:17; 
} 

object overhead_line:985 { 
     name R4-25-00-1_ol_5; 
     phases CN; 
     from R4-25-00-1_node_167; 
     to R4-25-00-1_node_168; 
     length 249.452; 
     configuration line_configuration:17; 
} 

object overhead_line:986 { 
     name R4-25-00-1_ol_6; 
     phases CN; 
     from R4-25-00-1_node_68; 
     to R4-25-00-1_node_69; 
     length 250.280; 
     configuration line_configuration:17; 
} 

object overhead_line:987 { 
     name R4-25-00-1_ol_7; 
     phases CN; 
     from R4-25-00-1_node_69; 
     to R4-25-00-1_node_162; 
     length 229.582; 
     configuration line_configuration:17; 
} 

object overhead_line:988 { 
     name R4-25-00-1_ol_8; 
     phases CN; 
     from R4-25-00-1_node_162; 
     to R4-25-00-1_node_163; 
     length 202.543; 
     configuration line_configuration:17; 
} 

object overhead_line:989 { 
     name R4-25-00-1_ol_9; 
     phases CN; 
     from R4-25-00-1_node_163; 
     to R4-25-00-1_node_71; 
     length 253.085; 
     configuration line_configuration:17; 
} 

object overhead_line:990 { 
     name R4-25-00-1_ol_10; 
     phases CN; 
     from R4-25-00-1_node_69; 
     to R4-25-00-1_node_161; 
     length 189.649; 
     configuration line_configuration:17; 
} 

object overhead_line:991 { 
     name R4-25-00-1_ol_11; 
     phases ABCN; 
     from R4-25-00-1_node_11; 
     to R4-25-00-1_node_12; 
     length 442.207; 
     configuration line_configuration:18; 
} 

object overhead_line:992 { 
     name R4-25-00-1_ol_12; 
     phases CN; 
     from R4-25-00-1_node_57; 
     to R4-25-00-1_node_199; 
     length 233.246; 
     configuration line_configuration:17; 
} 

object overhead_line:993 { 
     name R4-25-00-1_ol_13; 
     phases CN; 
     from R4-25-00-1_node_55; 
     to R4-25-00-1_node_195; 
     length 29.791; 
     configuration line_configuration:17; 
} 

object overhead_line:994 { 
     name R4-25-00-1_ol_14; 
     phases CN; 
     from R4-25-00-1_node_64; 
     to R4-25-00-1_node_204; 
     length 246.808; 
     configuration line_configuration:17; 
} 

object overhead_line:995 { 
     name R4-25-00-1_ol_15; 
     phases CN; 
     from R4-25-00-1_node_64; 
     to R4-25-00-1_node_203; 
     length 198.611; 
     configuration line_configuration:17; 
} 

object overhead_line:996 { 
     name R4-25-00-1_ol_16; 
     phases CN; 
     from R4-25-00-1_node_33; 
     to R4-25-00-1_node_106; 
     length 153.368; 
     configuration line_configuration:17; 
} 

object overhead_line:997 { 
     name R4-25-00-1_ol_17; 
     phases CN; 
     from R4-25-00-1_node_106; 
     to R4-25-00-1_node_37; 
     length 86.082; 
     configuration line_configuration:17; 
} 

object overhead_line:998 { 
     name R4-25-00-1_ol_18; 
     phases ABCN; 
     from R4-25-00-1_node_23; 
     to R4-25-00-1_node_22; 
     length 157.183; 
     configuration line_configuration:18; 
} 

object overhead_line:999 { 
     name R4-25-00-1_ol_19; 
     phases ABCN; 
     from R4-25-00-1_node_24; 
     to R4-25-00-1_node_23; 
     length 70.785; 
     configuration line_configuration:18; 
} 

object overhead_line:1000 { 
     name R4-25-00-1_ol_20; 
     phases BN; 
     from R4-25-00-1_node_116; 
     to R4-25-00-1_node_8; 
     length 164.667; 
     configuration line_configuration:16; 
} 

object overhead_line:1001 { 
     name R4-25-00-1_ol_21; 
     phases BN; 
     from R4-25-00-1_node_8; 
     to R4-25-00-1_node_118; 
     length 177.265; 
     configuration line_configuration:16; 
} 

object overhead_line:1002 { 
     name R4-25-00-1_ol_22; 
     phases BN; 
     from R4-25-00-1_node_118; 
     to R4-25-00-1_node_119; 
     length 264.433; 
     configuration line_configuration:16; 
} 

object overhead_line:1003 { 
     name R4-25-00-1_ol_23; 
     phases BN; 
     from R4-25-00-1_node_119; 
     to R4-25-00-1_node_120; 
     length 239.233; 
     configuration line_configuration:16; 
} 

object overhead_line:1004 { 
     name R4-25-00-1_ol_24; 
     phases BN; 
     from R4-25-00-1_node_120; 
     to R4-25-00-1_node_121; 
     length 217.207; 
     configuration line_configuration:16; 
} 

object overhead_line:1005 { 
     name R4-25-00-1_ol_25; 
     phases BN; 
     from R4-25-00-1_node_121; 
     to R4-25-00-1_node_7; 
     length 203.576; 
     configuration line_configuration:16; 
} 

object overhead_line:1006 { 
     name R4-25-00-1_ol_26; 
     phases BN; 
     from R4-25-00-1_node_7; 
     to R4-25-00-1_node_5; 
     length 216.339; 
     configuration line_configuration:16; 
} 

object overhead_line:1007 { 
     name R4-25-00-1_ol_27; 
     phases BN; 
     from R4-25-00-1_node_4; 
     to R4-25-00-1_node_122; 
     length 288.583; 
     configuration line_configuration:16; 
} 

object overhead_line:1008 { 
     name R4-25-00-1_ol_28; 
     phases BN; 
     from R4-25-00-1_node_123; 
     to R4-25-00-1_node_124; 
     length 344.378; 
     configuration line_configuration:19; 
} 

object overhead_line:1009 { 
     name R4-25-00-1_ol_29; 
     phases BN; 
     from R4-25-00-1_node_124; 
     to R4-25-00-1_node_125; 
     length 224.531; 
     configuration line_configuration:19; 
} 

object overhead_line:1010 { 
     name R4-25-00-1_ol_30; 
     phases BN; 
     from R4-25-00-1_node_125; 
     to R4-25-00-1_node_10; 
     length 351.661; 
     configuration line_configuration:19; 
} 

object overhead_line:1011 { 
     name R4-25-00-1_ol_31; 
     phases BN; 
     from R4-25-00-1_node_116; 
     to R4-25-00-1_node_123; 
     length 725.231; 
     configuration line_configuration:19; 
} 

object overhead_line:1012 { 
     name R4-25-00-1_ol_32; 
     phases ABCN; 
     from R4-25-00-1_node_18; 
     to R4-25-00-1_node_127; 
     length 176.244; 
     configuration line_configuration:18; 
} 

object overhead_line:1013 { 
     name R4-25-00-1_ol_33; 
     phases ABCN; 
     from R4-25-00-1_node_30; 
     to R4-25-00-1_node_32; 
     length 222.055; 
     configuration line_configuration:18; 
} 

object overhead_line:1014 { 
     name R4-25-00-1_ol_34; 
     phases AN; 
     from R4-25-00-1_node_32; 
     to R4-25-00-1_node_31; 
     length 183.558; 
     configuration line_configuration:20; 
} 

object overhead_line:1015 { 
     name R4-25-00-1_ol_35; 
     phases BN; 
     from R4-25-00-1_node_10; 
     to R4-25-00-1_node_131; 
     length 210.301; 
     configuration line_configuration:19; 
} 

object overhead_line:1016 { 
     name R4-25-00-1_ol_36; 
     phases CN; 
     from R4-25-00-1_node_71; 
     to R4-25-00-1_node_164; 
     length 160.023; 
     configuration line_configuration:17; 
} 

object overhead_line:1017 { 
     name R4-25-00-1_ol_37; 
     phases CN; 
     from R4-25-00-1_node_71; 
     to R4-25-00-1_node_165; 
     length 314.152; 
     configuration line_configuration:17; 
} 

object overhead_line:1018 { 
     name R4-25-00-1_ol_38; 
     phases CN; 
     from R4-25-00-1_node_37; 
     to R4-25-00-1_node_137; 
     length 408.163; 
     configuration line_configuration:17; 
} 

object overhead_line:1019 { 
     name R4-25-00-1_ol_39; 
     phases CN; 
     from R4-25-00-1_node_137; 
     to R4-25-00-1_node_38; 
     length 145.889; 
     configuration line_configuration:17; 
} 

object overhead_line:1020 { 
     name R4-25-00-1_ol_40; 
     phases CN; 
     from R4-25-00-1_node_35; 
     to R4-25-00-1_node_1; 
     length 324.521; 
     configuration line_configuration:21; 
} 

object overhead_line:1021 { 
     name R4-25-00-1_ol_41; 
     phases CN; 
     from R4-25-00-1_node_1; 
     to R4-25-00-1_node_135; 
     length 461.195; 
     configuration line_configuration:21; 
} 

object overhead_line:1022 { 
     name R4-25-00-1_ol_42; 
     phases CN; 
     from R4-25-00-1_node_134; 
     to R4-25-00-1_node_45; 
     length 688.880; 
     configuration line_configuration:22; 
} 

object overhead_line:1023 { 
     name R4-25-00-1_ol_43; 
     phases CN; 
     from R4-25-00-1_node_45; 
     to R4-25-00-1_node_47; 
     length 132.106; 
     configuration line_configuration:22; 
} 

object overhead_line:1024 { 
     name R4-25-00-1_ol_44; 
     phases CN; 
     from R4-25-00-1_node_135; 
     to R4-25-00-1_node_144; 
     length 635.432; 
     configuration line_configuration:17; 
} 

object overhead_line:1025 { 
     name R4-25-00-1_ol_45; 
     phases CN; 
     from R4-25-00-1_node_144; 
     to R4-25-00-1_node_143; 
     length 356.372; 
     configuration line_configuration:17; 
} 

object overhead_line:1026 { 
     name R4-25-00-1_ol_46; 
     phases CN; 
     from R4-25-00-1_node_143; 
     to R4-25-00-1_node_145; 
     length 213.926; 
     configuration line_configuration:17; 
} 

object overhead_line:1027 { 
     name R4-25-00-1_ol_47; 
     phases CN; 
     from R4-25-00-1_node_44; 
     to R4-25-00-1_node_142; 
     length 502.022; 
     configuration line_configuration:17; 
} 

object overhead_line:1028 { 
     name R4-25-00-1_ol_48; 
     phases CN; 
     from R4-25-00-1_node_135; 
     to R4-25-00-1_node_141; 
     length 338.441; 
     configuration line_configuration:21; 
} 

object overhead_line:1029 { 
     name R4-25-00-1_ol_49; 
     phases CN; 
     from R4-25-00-1_node_141; 
     to R4-25-00-1_node_42; 
     length 151.138; 
     configuration line_configuration:21; 
} 

object overhead_line:1030 { 
     name R4-25-00-1_ol_50; 
     phases CN; 
     from R4-25-00-1_node_42; 
     to R4-25-00-1_node_134; 
     length 658.677; 
     configuration line_configuration:21; 
} 

object overhead_line:1031 { 
     name R4-25-00-1_ol_51; 
     phases CN; 
     from R4-25-00-1_node_48; 
     to R4-25-00-1_node_52; 
     length 530.565; 
     configuration line_configuration:22; 
} 

object overhead_line:1032 { 
     name R4-25-00-1_ol_52; 
     phases CN; 
     from R4-25-00-1_node_47; 
     to R4-25-00-1_node_48; 
     length 94.183; 
     configuration line_configuration:22; 
} 

object overhead_line:1033 { 
     name R4-25-00-1_ol_53; 
     phases CN; 
     from R4-25-00-1_node_52; 
     to R4-25-00-1_node_50; 
     length 156.149; 
     configuration line_configuration:17; 
} 

object overhead_line:1034 { 
     name R4-25-00-1_ol_54; 
     phases CN; 
     from R4-25-00-1_node_43; 
     to R4-25-00-1_node_41; 
     length 130.257; 
     configuration line_configuration:17; 
} 

object overhead_line:1035 { 
     name R4-25-00-1_ol_55; 
     phases CN; 
     from R4-25-00-1_node_41; 
     to R4-25-00-1_node_177; 
     length 649.561; 
     configuration line_configuration:17; 
} 

object overhead_line:1036 { 
     name R4-25-00-1_ol_56; 
     phases CN; 
     from R4-25-00-1_node_52; 
     to R4-25-00-1_node_53; 
     length 396.183; 
     configuration line_configuration:22; 
} 

object overhead_line:1037 { 
     name R4-25-00-1_ol_57; 
     phases CN; 
     from R4-25-00-1_node_53; 
     to R4-25-00-1_node_171; 
     length 366.048; 
     configuration line_configuration:22; 
} 

object overhead_line:1038 { 
     name R4-25-00-1_ol_58; 
     phases CN; 
     from R4-25-00-1_node_171; 
     to R4-25-00-1_node_51; 
     length 790.851; 
     configuration line_configuration:22; 
} 

object overhead_line:1039 { 
     name R4-25-00-1_ol_59; 
     phases CN; 
     from R4-25-00-1_node_51; 
     to R4-25-00-1_node_49; 
     length 204.207; 
     configuration line_configuration:22; 
} 

object overhead_line:1040 { 
     name R4-25-00-1_ol_60; 
     phases CN; 
     from R4-25-00-1_node_49; 
     to R4-25-00-1_node_176; 
     length 546.170; 
     configuration line_configuration:22; 
} 

object overhead_line:1041 { 
     name R4-25-00-1_ol_61; 
     phases CN; 
     from R4-25-00-1_node_176; 
     to R4-25-00-1_node_174; 
     length 185.532; 
     configuration line_configuration:22; 
} 

object overhead_line:1042 { 
     name R4-25-00-1_ol_62; 
     phases CN; 
     from R4-25-00-1_node_174; 
     to R4-25-00-1_node_66; 
     length 255.765; 
     configuration line_configuration:22; 
} 

object overhead_line:1043 { 
     name R4-25-00-1_ol_63; 
     phases ABCN; 
     from R4-25-00-1_node_19; 
     to R4-25-00-1_node_18; 
     length 100.019; 
     configuration line_configuration:18; 
} 

object overhead_line:1044 { 
     name R4-25-00-1_ol_64; 
     phases ABCN; 
     from R4-25-00-1_node_22; 
     to R4-25-00-1_node_19; 
     length 191.000; 
     configuration line_configuration:18; 
} 

object overhead_line:1045 { 
     name R4-25-00-1_ol_65; 
     phases ABCN; 
     from R4-25-00-1_node_189; 
     to R4-25-00-1_node_24; 
     length 104.060; 
     configuration line_configuration:18; 
} 

object overhead_line:1046 { 
     name R4-25-00-1_ol_66; 
     phases ABCN; 
     from R4-25-00-1_node_188; 
     to R4-25-00-1_node_189; 
     length 169.691; 
     configuration line_configuration:18; 
} 

object overhead_line:1047 { 
     name R4-25-00-1_ol_67; 
     phases ABCN; 
     from R4-25-00-1_node_187; 
     to R4-25-00-1_node_188; 
     length 264.405; 
     configuration line_configuration:18; 
} 

object overhead_line:1048 { 
     name R4-25-00-1_ol_68; 
     phases ABCN; 
     from R4-25-00-1_node_187; 
     to R4-25-00-1_node_186; 
     length 399.836; 
     configuration line_configuration:18; 
} 

object overhead_line:1049 { 
     name R4-25-00-1_ol_69; 
     phases ABCN; 
     from R4-25-00-1_node_186; 
     to R4-25-00-1_node_30; 
     length 88.180; 
     configuration line_configuration:18; 
} 

object overhead_line:1050 { 
     name R4-25-00-1_ol_70; 
     phases ABCN; 
     from R4-25-00-1_node_26; 
     to R4-25-00-1_node_187; 
     length 555.870; 
     configuration line_configuration:18; 
} 

object overhead_line:1051 { 
     name R4-25-00-1_ol_71; 
     phases ABCN; 
     from R4-25-00-1_node_225; 
     to R4-25-00-1_node_26; 
     length 150.429; 
     configuration line_configuration:18; 
} 

object overhead_line:1052 { 
     name R4-25-00-1_ol_72; 
     phases ABCN; 
     from R4-25-00-1_node_20; 
     to R4-25-00-1_node_225; 
     length 319.451; 
     configuration line_configuration:18; 
} 

object overhead_line:1053 { 
     name R4-25-00-1_ol_73; 
     phases ACN; 
     from R4-25-00-1_node_20; 
     to R4-25-00-1_node_151; 
     length 329.400; 
     configuration line_configuration:23; 
} 

object overhead_line:1054 { 
     name R4-25-00-1_ol_74; 
     phases ABCN; 
     from R4-25-00-1_node_17; 
     to R4-25-00-1_node_20; 
     length 348.494; 
     configuration line_configuration:18; 
} 

object overhead_line:1055 { 
     name R4-25-00-1_ol_75; 
     phases CN; 
     from R4-25-00-1_node_17; 
     to R4-25-00-1_node_179; 
     length 164.759; 
     configuration line_configuration:21; 
} 

object overhead_line:1056 { 
     name R4-25-00-1_ol_76; 
     phases CN; 
     from R4-25-00-1_node_179; 
     to R4-25-00-1_node_25; 
     length 394.866; 
     configuration line_configuration:21; 
} 

object overhead_line:1057 { 
     name R4-25-00-1_ol_77; 
     phases ABCN; 
     from R4-25-00-1_node_12; 
     to R4-25-00-1_node_156; 
     length 651.719; 
     configuration line_configuration:18; 
} 

object overhead_line:1058 { 
     name R4-25-00-1_ol_78; 
     phases ABCN; 
     from R4-25-00-1_node_154; 
     to R4-25-00-1_node_17; 
     length 379.976; 
     configuration line_configuration:18; 
} 

object overhead_line:1059 { 
     name R4-25-00-1_ol_79; 
     phases ABCN; 
     from R4-25-00-1_node_15; 
     to R4-25-00-1_node_154; 
     length 582.940; 
     configuration line_configuration:18; 
} 

object overhead_line:1060 { 
     name R4-25-00-1_ol_80; 
     phases ABCN; 
     from R4-25-00-1_node_13; 
     to R4-25-00-1_node_15; 
     length 294.574; 
     configuration line_configuration:18; 
} 

object overhead_line:1061 { 
     name R4-25-00-1_ol_81; 
     phases ABCN; 
     from R4-25-00-1_node_156; 
     to R4-25-00-1_node_13; 
     length 426.671; 
     configuration line_configuration:18; 
} 

...